Version 4
SHEET 1 1644 824
WIRE 208 -144 -32 -144
WIRE 400 -144 272 -144
WIRE 144 96 144 16
WIRE 112 112 64 112
WIRE 400 128 400 -144
WIRE 400 128 224 128
WIRE 896 128 400 128
WIRE -512 144 -544 144
WIRE -32 144 -32 -144
WIRE -32 144 -432 144
WIRE 112 144 -32 144
WIRE 400 192 400 128
WIRE 144 224 144 160
WIRE 608 336 608 288
WIRE 400 352 400 272
WIRE 576 352 400 352
WIRE 768 368 688 368
WIRE 896 368 768 368
WIRE 400 384 400 352
WIRE 576 384 512 384
WIRE 608 464 608 400
WIRE 64 624 64 112
WIRE 64 624 0 624
WIRE 368 624 64 624
WIRE 512 624 512 384
WIRE 512 624 448 624
WIRE 656 624 512 624
WIRE 768 624 768 368
WIRE 768 624 720 624
WIRE -544 704 -544 144
WIRE 768 704 768 624
WIRE 768 704 -544 704
FLAG 144 -64 0
FLAG 144 304 0
FLAG 608 208 0
FLAG 608 544 0
FLAG 400 448 0
FLAG -80 624 0
FLAG 896 128 Vout_sine
IOPIN 896 128 In
FLAG 896 368 Vout_cosine
IOPIN 896 368 In
SYMBOL UA741 144 128 R0
SYMATTR InstName A1
SYMBOL voltage 144 208 R0
WINDOW 123 0 0 Left 0
WINDOW 39 0 0 Left 0
SYMATTR InstName VSS_A1
SYMATTR Value -2.5
SYMBOL voltage 144 32 R180
WINDOW 0 24 96 Left 2
WINDOW 3 24 16 Left 2
WINDOW 123 0 0 Left 0
WINDOW 39 0 0 Left 0
SYMATTR InstName VDD_A1
SYMATTR Value 2.5
SYMBOL UA741 608 368 R0
SYMATTR InstName A2
SYMBOL voltage 608 304 R180
WINDOW 0 24 96 Left 2
WINDOW 3 24 16 Left 2
WINDOW 123 0 0 Left 0
WINDOW 39 0 0 Left 0
SYMATTR InstName VDD_A2
SYMATTR Value 2.5
SYMBOL voltage 608 448 R0
WINDOW 123 0 0 Left 0
WINDOW 39 0 0 Left 0
SYMATTR InstName VSS_A2
SYMATTR Value -2.5
SYMBOL res 384 176 R0
SYMATTR InstName R2
SYMATTR Value 1.92k
SYMBOL cap 384 384 R0
SYMATTR InstName C2
SYMATTR Value 275p
SYMBOL cap 656 640 R270
WINDOW 0 32 32 VTop 2
WINDOW 3 0 32 VBottom 2
SYMATTR InstName C3
SYMATTR Value 275p
SYMBOL res 464 608 R90
WINDOW 0 0 56 VBottom 2
WINDOW 3 32 56 VTop 2
SYMATTR InstName R3
SYMATTR Value 1.92k
SYMBOL voltage 16 624 R90
WINDOW 0 -32 56 VBottom 2
WINDOW 3 32 56 VTop 2
WINDOW 123 0 0 Left 0
WINDOW 39 0 0 Left 0
SYMATTR InstName Vbias
SYMATTR Value 0
SYMBOL cap 272 -160 R90
WINDOW 0 0 32 VBottom 2
WINDOW 3 32 32 VTop 2
SYMATTR InstName C1
SYMATTR Value 275p
SYMBOL res -416 128 R90
WINDOW 0 0 56 VBottom 2
WINDOW 3 32 56 VTop 2
SYMATTR InstName R1
SYMATTR Value 1.92k
TEXT -544 712 Left 2 !.tran 10m
TEXT 88 -464 Left 2 ;NRS Op-Amp Team
TEXT 48 -400 Left 2 ;1.) Quadrature Oscillator
