Version 4
SHEET 1 2252 696
WIRE -64 -208 -160 -208
WIRE 80 -208 0 -208
WIRE 880 -160 848 -160
WIRE 880 -96 880 -160
WIRE 1200 -64 1040 -64
WIRE 1312 -64 1200 -64
WIRE 1456 -64 1312 -64
WIRE 1632 -64 1536 -64
WIRE 1712 -64 1632 -64
WIRE 1840 -64 1792 -64
WIRE 2080 -64 1840 -64
WIRE 2192 -64 2080 -64
WIRE 2224 -64 2192 -64
WIRE 1200 -16 1200 -64
WIRE -32 0 -32 -48
WIRE 1632 0 1632 -64
WIRE 1840 0 1840 -64
WIRE -64 16 -112 16
WIRE 80 32 80 -208
WIRE 80 32 48 32
WIRE 224 32 80 32
WIRE 560 32 224 32
WIRE 768 32 640 32
WIRE 880 32 880 -16
WIRE 880 32 832 32
WIRE 992 32 992 16
WIRE 992 32 880 32
WIRE -320 48 -400 48
WIRE -160 48 -160 -208
WIRE -160 48 -240 48
WIRE -64 48 -160 48
WIRE 2080 48 2080 -64
WIRE 224 80 224 32
WIRE -32 112 -32 64
WIRE 1040 112 1040 32
WIRE 1040 112 944 112
WIRE 560 192 560 32
WIRE 736 192 560 192
WIRE 448 208 448 160
WIRE 1040 208 1040 112
WIRE 224 224 224 160
WIRE 416 224 224 224
WIRE 576 240 528 240
WIRE 640 240 640 32
WIRE 640 240 576 240
WIRE 224 256 224 224
WIRE 416 256 336 256
WIRE 736 288 736 192
WIRE 800 288 736 288
WIRE 880 288 864 288
WIRE 992 288 880 288
WIRE 1200 304 1040 304
WIRE 1312 304 1200 304
WIRE 1456 304 1312 304
WIRE 1632 304 1536 304
WIRE 1712 304 1632 304
WIRE 1840 304 1792 304
WIRE 2080 304 1840 304
WIRE 2192 304 2080 304
WIRE 2224 304 2192 304
WIRE 448 320 448 272
WIRE 1632 352 1632 304
WIRE 1840 352 1840 304
WIRE 880 368 880 288
WIRE 1200 384 1200 304
WIRE 2080 384 2080 304
WIRE -112 480 -112 16
WIRE -112 480 -176 480
WIRE 144 480 -112 480
WIRE 336 480 336 256
WIRE 336 480 224 480
WIRE 416 480 336 480
WIRE 576 480 576 240
WIRE 576 480 480 480
WIRE 880 496 880 448
WIRE 880 496 864 496
WIRE -400 560 -400 48
WIRE 576 560 576 480
WIRE 576 560 -400 560
FLAG -32 192 0
FLAG -32 -128 0
FLAG 224 320 0
FLAG 448 80 0
FLAG 448 400 0
FLAG -256 480 0
FLAG 1040 -16 0
FLAG 1040 256 0
FLAG 784 496 0
FLAG 768 -160 0
FLAG 864 112 0
FLAG 1200 464 0
FLAG 1200 64 0
FLAG 1632 64 0
FLAG 1840 64 0
FLAG 2080 112 0
FLAG 1840 416 0
FLAG 1632 416 0
FLAG 2080 448 0
FLAG 2192 -64 I_final
FLAG 2192 304 Q_final
FLAG 1312 -64 IF
FLAG 1312 304 QF
SYMBOL UA741 -32 32 R0
SYMATTR InstName A1
SYMBOL voltage -32 96 R0
WINDOW 123 0 0 Left 0
WINDOW 39 0 0 Left 0
SYMATTR InstName VSS_A1
SYMATTR Value -2.5
SYMBOL cap 0 -224 R90
WINDOW 0 0 32 VBottom 2
WINDOW 3 32 32 VTop 2
SYMATTR InstName C1
SYMATTR Value 275p
SYMBOL res -224 32 R90
WINDOW 0 0 56 VBottom 2
WINDOW 3 32 56 VTop 2
SYMATTR InstName R1
SYMATTR Value 1.92k
SYMBOL res 208 64 R0
SYMATTR InstName R2
SYMATTR Value 1.92k
SYMBOL cap 208 256 R0
SYMATTR InstName C2
SYMATTR Value 275p
SYMBOL UA741 448 240 R0
SYMATTR InstName A2
SYMBOL voltage 448 176 R180
WINDOW 0 24 96 Left 2
WINDOW 3 24 16 Left 2
WINDOW 123 0 0 Left 0
WINDOW 39 0 0 Left 0
SYMATTR InstName VDD_A2
SYMATTR Value 2.5
SYMBOL voltage 448 304 R0
WINDOW 123 0 0 Left 0
WINDOW 39 0 0 Left 0
SYMATTR InstName VSS_A2
SYMATTR Value -2.5
SYMBOL cap 480 464 R90
WINDOW 0 0 32 VBottom 2
WINDOW 3 32 32 VTop 2
SYMATTR InstName C3
SYMATTR Value 275p
SYMBOL res 240 464 R90
WINDOW 0 0 56 VBottom 2
WINDOW 3 32 56 VTop 2
SYMATTR InstName R3
SYMATTR Value 1.92k
SYMBOL voltage -160 480 R90
WINDOW 0 -32 56 VBottom 2
WINDOW 3 32 56 VTop 2
WINDOW 123 0 0 Left 0
WINDOW 39 0 0 Left 0
SYMATTR InstName Vbias
SYMATTR Value 0
SYMBOL voltage -32 -32 R180
WINDOW 0 24 96 Left 2
WINDOW 3 24 16 Left 2
WINDOW 123 0 0 Left 0
WINDOW 39 0 0 Left 0
SYMATTR InstName VDD_A1
SYMATTR Value 2.5
SYMBOL nmos4 992 -64 R0
SYMATTR InstName M_I
SYMATTR Value CMOSN
SYMATTR Value2 l=0.18u w=0.5u ad=0.225p as=0.225p pd=1.9u ps=1.9u
SYMBOL nmos4 992 208 R0
SYMATTR InstName M_Q
SYMATTR Value2 l=0.18u w=0.5u ad=0.225p as=0.225p pd=1.9u ps=1.9u
SYMATTR Value CMOSN
SYMBOL cap 832 16 R90
WINDOW 0 0 32 VBottom 2
WINDOW 3 32 32 VTop 2
SYMATTR InstName Cc_I
SYMATTR Value 500p
SYMBOL cap 864 272 R90
WINDOW 0 0 32 VBottom 2
WINDOW 3 32 32 VTop 2
SYMATTR InstName Cc_Q
SYMATTR Value 500p
SYMBOL res 864 -112 R0
SYMATTR InstName Rbias_I
SYMATTR Value 100k
SYMBOL res 864 352 R0
SYMATTR InstName Rbias_Q
SYMATTR Value 100k
SYMBOL voltage 880 496 R90
WINDOW 0 -32 56 VBottom 2
WINDOW 3 32 56 VTop 2
WINDOW 123 0 0 Left 0
WINDOW 39 0 0 Left 0
SYMATTR InstName Vbias_Q
SYMATTR Value 0.425
SYMBOL voltage 864 -160 R90
WINDOW 0 -32 56 VBottom 2
WINDOW 3 32 56 VTop 2
WINDOW 123 0 0 Left 0
WINDOW 39 0 0 Left 0
SYMATTR InstName Vbias_I
SYMATTR Value 0.425
SYMBOL voltage 960 112 R90
WINDOW 0 -32 56 VBottom 2
WINDOW 3 32 56 VTop 2
WINDOW 123 0 0 Left 0
WINDOW 39 0 0 Left 0
SYMATTR InstName Vinput
SYMATTR Value SINE(0 200m 101k 0 0 90)
SYMBOL res 1184 -32 R0
SYMATTR InstName RL_I
SYMATTR Value 1k
SYMBOL res 1184 368 R0
SYMATTR InstName RL_Q
SYMATTR Value 1k
SYMBOL res 1552 -80 R90
WINDOW 0 0 56 VBottom 2
WINDOW 3 32 56 VTop 2
SYMATTR InstName R_LP_Filter_1_I
SYMATTR Value 8k
SYMBOL cap 1616 0 R0
SYMATTR InstName C_LP_Filter_1_I
SYMATTR Value 10n
SYMBOL res 1808 -80 R90
WINDOW 0 0 56 VBottom 2
WINDOW 3 32 56 VTop 2
SYMATTR InstName R_LP_Filter_2_I
SYMATTR Value 10k
SYMBOL cap 1824 0 R0
SYMATTR InstName C_LP_Filter_2_I
SYMATTR Value 10n
SYMBOL cap 2064 48 R0
SYMATTR InstName C_probe_I
SYMATTR Value 10p
SYMBOL res 1552 288 R90
WINDOW 0 0 56 VBottom 2
WINDOW 3 32 56 VTop 2
SYMATTR InstName R_LP_Filter_1_Q
SYMATTR Value 8k
SYMBOL res 1808 288 R90
WINDOW 0 0 56 VBottom 2
WINDOW 3 32 56 VTop 2
SYMATTR InstName R_LP_Filter_2_Q
SYMATTR Value 10k
SYMBOL cap 1616 352 R0
SYMATTR InstName C_LP_Filter_1_Q
SYMATTR Value 10n
SYMBOL cap 1824 352 R0
SYMATTR InstName C_LP_Filter_2_Q
SYMATTR Value 10n
SYMBOL cap 2064 384 R0
SYMATTR InstName C_probe_Q
SYMATTR Value 10p
TEXT -400 656 Left 2 !.include TSMC_180nm.txt
TEXT -400 680 Left 2 !.tran 10m
TEXT -400 608 Left 2 ;TEAM NRS Op-Amp
